5
Energy =    6.47469149468816
Si   0.22452650744972 -0.31206901884100 -0.92314721195053
Si   0.70826598466351 -0.59839142870143  0.37454905289600
Si  -0.22452650744971  0.31206901884101  0.92314721195053
Si   0.22548788101200  0.93826180573110 -0.26233566174450
Si  -0.93375386567552 -0.33987037702968 -0.11221339115150
