6
Energy =    9.98528137423857
Si   0.36573693626691  0.83053558250437 -0.42005611487541
Si  -0.36573693626692 -0.83053558250436  0.42005611487541
Si   0.20456830094056 -0.51202253634005 -0.83425699429504
Si   0.90795831605883 -0.21918843143296  0.35716680672422
Si  -0.90795831605883  0.21918843143296 -0.35716680672422
Si  -0.20456830094056  0.51202253634004  0.83425699429505
