7
Energy =   14.45297741422134
Si   0.87571264700327  0.20846181154108  0.43551237985567
Si   0.23882977736897 -0.76648671454945  0.59620336619401
Si   0.48167497746823 -0.43960525614806 -0.75811373477070
Si  -0.68882510004574  0.34487835651852 -0.63763539797604
Si  -0.48167497746823  0.43960525614807  0.75811373477069
Si  -0.72810767912203 -0.68217669681228 -0.06703851079656
Si   0.30239035479554  0.89532324330214 -0.32704183727708
