9
Energy =   25.75998653126982
Si  -0.21520110904738  0.94217892628941  0.25688003721760
Si   0.79709965978789 -0.53506292395502 -0.27989247895349
Si  -0.20703678865203 -0.92644284221223  0.31438738565404
Si  -0.95676031233981  0.11221083789002 -0.26836250220819
Si   0.81894295259250  0.57296032199128 -0.03238687732287
Si   0.53452241427479 -0.09647475330632  0.83962992479564
Si   0.04737613646887  0.50359075563634 -0.86264236652908
Si  -0.59424233082862  0.02214639486865  0.80398108774130
Si  -0.22470062224256 -0.59510671719264 -0.77159421039559
